
     RDKit          3D

 20 21  0  0  0  0  0  0  0  0999 V2000
   37.1580   23.4870   30.4910 C   0  0  0  0  0  0  0  0  0  0  0  0
   38.3350   23.8670   31.1330 C   0  0  0  0  0  0  0  0  0  0  0  0
   38.4750   25.1600   31.6300 C   0  0  0  0  0  0  0  0  0  0  0  0
   37.4290   26.0740   31.4840 C   0  0  0  0  0  0  0  0  0  0  0  0
   36.2470   25.6910   30.8390 C   0  0  0  0  0  0  0  0  0  0  0  0
   36.1140   24.3940   30.3420 C   0  0  0  0  0  0  0  0  0  0  0  0
   34.8170   23.9710   29.6420 C   0  0  0  0  0  0  0  0  0  0  0  0
   33.7260   24.2890   30.1100 O   0  0  0  0  0  0  0  0  0  0  0  0
   34.9690   23.2500   28.5340 N   0  0  0  0  0  0  0  0  0  0  0  0
   33.7690   22.7880   27.7880 C   0  0  2  0  0  0  0  0  0  0  0  0
   33.5440   21.3610   28.0580 O   0  0  0  0  0  0  0  0  0  0  0  0
   32.3720   20.8560   27.4120 C   0  0  2  0  0  0  0  0  0  0  0  0
   32.2320   19.3880   27.8560 C   0  0  0  0  0  0  0  0  0  0  0  0
   33.3160   18.6190   27.3300 O   0  0  0  0  0  0  0  0  0  0  0  0
   32.5250   21.0280   25.8800 C   0  0  1  0  0  0  0  0  0  0  0  0
   31.3420   20.5750   25.2380 O   0  0  0  0  0  0  0  0  0  0  0  0
   32.7830   22.4940   25.4940 C   0  0  2  0  0  0  0  0  0  0  0  0
   33.0530   22.5840   24.0950 O   0  0  0  0  0  0  0  0  0  0  0  0
   33.9700   23.0640   26.2880 C   0  0  1  0  0  0  0  0  0  0  0  0
   34.1230   24.4740   26.0520 O   0  0  0  0  0  0  0  0  0  0  0  0
  1  2  2  0
  1  6  1  0
  2  3  1  0
  3  4  2  0
  4  5  1  0
  5  6  2  0
  6  7  1  0
  7  8  2  0
  7  9  1  0
 10  9  1  1
 10 11  1  0
 10 19  1  0
 11 12  1  0
 12 13  1  6
 12 15  1  0
 13 14  1  0
 15 16  1  6
 15 17  1  0
 17 18  1  6
 17 19  1  0
 19 20  1  1
M  END
$$$$
